.subckt AND node_a node_b node_out vdd gnd
    X1 node_a node_b nand_out1 vdd gnd NAND
    X2 nand_out1 nand_out1 node_out vdd gnd NAND
.ends AND

